78
Lattice="20.54540472 0.0 0.0 0.0 22.56932871 0.0 0.0 0.0 23.64248389" Properties=species:S:1:pos:R:3:forces:R:3 energy=-234.638474161 pbc="F F F"
Cu       9.58021319      12.23229906      17.64248389       0.00147211       0.00153132      -0.00144814
Cu      11.87194859      12.68883398      16.76479014       0.00101975      -0.00202338       0.00040349
Cu      10.76956993      10.33865407      16.51188318      -0.00364035      -0.00417633      -0.00069689
Cu      10.07931587      14.42090635      16.43492763      -0.00082991       0.00354372      -0.00006336
Cu       7.84861951      13.22148177      16.16818838      -0.00527466       0.00000662      -0.00407552
Cu       8.30753126      10.65931336      16.10901012      -0.00457844       0.00346036       0.00477225
Cu      14.16801277      13.14692122      15.80949174      -0.00089093      -0.00264925       0.00091153
Cu      13.16175670      10.83000882      15.66903972       0.00339319      -0.00051954      -0.00028543
Cu      12.38617115      14.89318976      15.46309888       0.00125904       0.00198071       0.00408449
Cu       9.95086712      12.26219028      15.16034935       0.00129138      -0.00074850       0.00351193
Cu      12.09751692       8.54542398      15.46487765      -0.00361955       0.00054234      -0.00077313
Cu      10.57543066      16.56932871      15.17296888      -0.00139017      -0.00229109      -0.00111992
Cu       9.51972019       8.70752459      14.64072475       0.00020460       0.00081808      -0.00206223
Cu       8.34593954      15.44152360      14.91955700      -0.00165018       0.00037598      -0.00097507
Cu       6.46604582      11.74029255      14.64361637       0.00020030       0.00061559       0.00402376
Cu       6.12172686      14.24626176      14.66496391       0.00222857       0.00074483      -0.00258494
Cu       6.90325816       9.25834891      14.61440483       0.00306141      -0.00166202      -0.00051922
Cu      12.24007117      12.71225780      14.31116199       0.00156882       0.00160572       0.00290456
Cu      11.24733772      10.40384250      14.07945555      -0.00656715       0.00006947      -0.00041626
Cu      10.43287033      14.39635499      13.93998192      -0.00123194       0.00739892       0.00257340
Cu       8.20398816      13.27382482      13.70900334      -0.00341766       0.00080627       0.00404218
Cu       8.55931601      10.78896179      13.64152558      -0.00043189      -0.00087172      -0.00257875
Cu      14.54540472      11.83270493      13.70240939      -0.00212983      -0.00323030       0.00262154
Cu      14.00529414      14.34735218      13.59247961       0.00144480       0.00040405       0.00139223
Cu      13.53775682       9.55986098      13.53875116       0.00236701      -0.00017774      -0.00262824
Cu      12.07859524      16.10132095      13.18145048      -0.00328807      -0.00180171       0.00132793
Cu      11.69098251       7.87787313      13.16291880      -0.00119579      -0.00117433       0.00205267
Cu      10.31800097      12.23406235      12.62284359      -0.00448155      -0.00034281      -0.00042357
Cu       9.56658414      16.47735162      12.88820535       0.00188181       0.00183051       0.00099565
Cu       9.68754070       6.98095064      11.98412574       0.00129780       0.00224189      -0.00097412
Cu       7.20596662      15.33784253      12.67819352      -0.00343475      -0.00001594       0.00473808
Cu       6.39729467      10.57553623      12.38222285       0.00211496       0.00346207       0.00193639
Cu       7.73893680       8.46252024      12.46522361       0.00100216      -0.00332238      -0.00288308
Cu      12.56720318      11.45692378      12.25928701       0.00452866      -0.00065287      -0.00568936
Cu      12.11193800      13.91778389      12.11126012       0.00274000      -0.00113489       0.00197909
Cu      14.04469300       7.79070540      11.96335033       0.00607690       0.00146010      -0.00241119
Cu       9.99268447       9.44382735      12.25658888       0.00275025       0.00051110       0.00446148
Cu       9.26581175      14.31383850      11.71371002       0.00646564       0.00010106       0.00014138
Cu       8.15374759      12.09242083      11.54584093       0.00351282       0.00380013      -0.00328855
Cu      11.60412404      13.14525323       6.00000000       0.00424194       0.00065807      -0.00263958
Cu      10.01703213      11.18007407       6.06079387      -0.00018589      -0.00146860       0.00005125
Cu      12.56426374      10.88367337       6.56460730      -0.00211128      -0.00215789      -0.00417014
Cu       8.46300136       9.23345550       6.18930907      -0.00260545      -0.00070655      -0.00127013
Cu      10.95393632       8.91087451       6.61669305      -0.00263341      -0.00081973       0.00025908
Cu      13.42726588       8.61497099       7.10410975       0.00193350       0.00296568      -0.00025756
Cu       9.29816955      13.39688713       7.00713111      -0.00228391      -0.00136327       0.00253780
Cu       7.68491673      11.38758371       7.21282817       0.00022690      -0.00540312       0.00289302
Cu      13.36677465      12.94540835       7.79903068       0.00224142      -0.00193455      -0.00008048
Cu      11.37451553      14.55356919       8.06734933       0.00443216      -0.00070942       0.00042685
Cu      11.05382471      12.03276694       8.14579658       0.00057815      -0.00178032       0.00722319
Cu      14.29892351      10.56627962       8.47393702       0.00236098       0.00168563      -0.00428645
Cu       9.51311179      10.09257932       8.29909655      -0.00325879      -0.00027317      -0.00373142
Cu       9.19240581       7.61796688       7.92592288      -0.00229477       0.00051515       0.00096711
Cu       7.02123607      13.59608882       8.08676592      -0.00196262      -0.00452959       0.00098618
Cu      11.72330968       7.28888043       8.38632266      -0.00247483       0.00179430       0.00004552
Cu      11.95655486       9.78252235       8.75661414      -0.00281670       0.00044164      -0.00150356
Cu       7.19075771       9.21519935       8.38345878      -0.00224640       0.00246368       0.00028895
Cu       9.11530105      14.78856734       9.08862284      -0.00307685      -0.00250942      -0.00093187
Cu       8.79240182      12.31176165       9.23000642      -0.00184508      -0.00162884       0.00002066
Cu      14.40746522      12.95663004      11.47863712       0.00036466       0.00026191      -0.00112088
Cu      13.79212235       8.30584072       9.55735304       0.00120697      -0.00151223      -0.00183510
Cu       6.49522977      11.49744688       9.71578971       0.00072490       0.00146163       0.00184437
Cu      13.08417890      14.41071540       9.88223368       0.00210323       0.00065506      -0.00283772
Cu      12.82629279      11.85539075       9.91623103      -0.00346831       0.00031549       0.00323835
Cu      10.83764094      13.35855416      10.16892379      -0.00466339      -0.00410942      -0.00128475
Cu      10.53358673      10.98825310      10.47298217       0.00568325       0.00475625      -0.00134238
Cu      10.98026813      15.79311671      10.74840574       0.00080036      -0.00127357       0.00152498
Cu      10.24580623       8.45007648      10.01586766      -0.00004831      -0.00525899      -0.00318241
Cu       9.96054056       6.00000000       9.68217382       0.00230937       0.00271813      -0.00080187
Cu       8.27613276       9.92967429      10.50201282       0.00158135      -0.00333058      -0.00123261
Cu      14.49640615      10.31591361      11.13835202       0.00194212       0.00089114       0.00388041
Cu       7.95090544       7.46806211      10.13325050       0.00052378       0.00261251      -0.00093530
Cu       7.12321268      14.07525736      10.46845215      -0.00297213       0.00122855      -0.00497352
Cu       8.35834669      16.39996292      10.73226859       0.00085203       0.00216583      -0.00294778
Cu       6.00000000       9.01059461      10.55256321       0.00092771       0.00000133       0.00432747
Cu      12.24705003       9.32013219      11.20984095       0.00397976       0.00514399       0.00385879
Cu      12.00952853       6.86396490      10.84990234      -0.00085025      -0.00380512      -0.00471579
Cu       6.03267024      13.04278878      12.45615837      -0.00104534       0.00132239      -0.00126970
