247
Lattice="20.54540472 0.0 0.0 0.0 22.56932871 0.0 0.0 0.0 23.64248389" Properties=species:S:1:pos:R:3:momenta:R:3:tags:I:1:initial_charges:R:1 pbc="F F F"
Cu       9.57897000      12.30435000      17.72122000       0.00000000       0.00000000       0.00000000        1       0.00000000
Cu      11.89202000      12.75571000      16.87508000       0.00000000       0.00000000       0.00000000        1       0.00000000
Cu      10.78184000      10.37095000      16.64518000       0.00000000       0.00000000       0.00000000        1       0.00000000
Cu      10.04228000      14.51639000      16.58698000       0.00000000       0.00000000       0.00000000        1       0.00000000
Cu       7.79092000      13.28862000      16.27774000       0.00000000       0.00000000       0.00000000        1       0.00000000
Cu       8.23965000      10.74009000      16.25204000       0.00000000       0.00000000       0.00000000        1       0.00000000
Cu      14.15681000      13.16002000      15.86359000       0.00000000       0.00000000       0.00000000        1       0.00000000
Cu      13.16010000      10.83609000      15.71648000       0.00000000       0.00000000       0.00000000        1       0.00000000
Cu      12.39562000      14.95117000      15.58323000       0.00000000       0.00000000       0.00000000        1       0.00000000
Cu       9.94800000      12.31349000      15.30401000       0.00000000       0.00000000       0.00000000        0       0.00000000
Cu      12.06325000       8.55822000      15.49043000       0.00000000       0.00000000       0.00000000        1       0.00000000
Cu      10.53824000      16.60645000      15.25936000       0.00000000       0.00000000       0.00000000        1       0.00000000
Cu       9.52942000       8.46181000      14.39145000       0.00000000       0.00000000       0.00000000        1       0.00000000
Cu       8.28901000      15.52071000      15.01566000       0.00000000       0.00000000       0.00000000        1       0.00000000
Cu       6.45095000      11.74031000      14.69996000       0.00000000       0.00000000       0.00000000        1       0.00000000
Cu       6.10987000      14.24102000      14.69440000       0.00000000       0.00000000       0.00000000        1       0.00000000
Cu       6.95177000       9.27009000      14.66154000       0.00000000       0.00000000       0.00000000        1       0.00000000
Cu      12.26927000      12.75630000      14.37491000       0.00000000       0.00000000       0.00000000        0       0.00000000
Cu      11.20475000      10.36888000      14.17318000       0.00000000       0.00000000       0.00000000        0       0.00000000
Cu      10.42548000      14.48629000      14.04941000       0.00000000       0.00000000       0.00000000        0       0.00000000
Cu       8.17548000      13.31093000      13.78849000       0.00000000       0.00000000       0.00000000        0       0.00000000
Cu       8.59236000      10.74679000      13.77293000       0.00000000       0.00000000       0.00000000        0       0.00000000
Cu      14.54266000      11.82577000      13.71959000       0.00000000       0.00000000       0.00000000        1       0.00000000
Cu      14.00314000      14.39357000      13.66321000       0.00000000       0.00000000       0.00000000        1       0.00000000
Cu      13.55515000       9.53549000      13.58441000       0.00000000       0.00000000       0.00000000        1       0.00000000
Cu      12.06361000      16.17164000      13.29646000       0.00000000       0.00000000       0.00000000        1       0.00000000
Cu      11.74769000       7.85724000      13.13743000       0.00000000       0.00000000       0.00000000        1       0.00000000
Cu      10.32820000      12.29074000      12.75525000       0.00000000       0.00000000       0.00000000        0       0.00000000
Cu       9.54311000      16.56047000      12.94732000       0.00000000       0.00000000       0.00000000        1       0.00000000
Cu       9.71345000       7.01270000      11.98023000       0.00000000       0.00000000       0.00000000        1       0.00000000
Cu       7.18951000      15.36648000      12.72540000       0.00000000       0.00000000       0.00000000        1       0.00000000
Cu       6.38529000      10.54732000      12.41767000       0.00000000       0.00000000       0.00000000        1       0.00000000
Cu       7.73278000       8.46004000      12.44221000       0.00000000       0.00000000       0.00000000        1       0.00000000
Cu      12.52914000      11.44582000      12.25296000       0.00000000       0.00000000       0.00000000        0       0.00000000
Cu      12.12224000      14.03642000      12.12078000       0.00000000       0.00000000       0.00000000        1       0.00000000
Cu      14.06472000       7.79772000      11.90984000       0.00000000       0.00000000       0.00000000        1       0.00000000
Cu      10.01385000       9.52224000      12.19275000       0.00000000       0.00000000       0.00000000        0       0.00000000
Cu       9.28093000      14.38257000      11.76295000       0.00000000       0.00000000       0.00000000        0       0.00000000
Cu       8.24133000      12.06953000      11.59039000       0.00000000       0.00000000       0.00000000        0       0.00000000
Cu      11.58626000      13.13925000       5.95760000       0.00000000       0.00000000       0.00000000        1       0.00000000
Cu      10.03396000      11.16356000       5.93842000       0.00000000       0.00000000       0.00000000        1       0.00000000
Cu      12.58976000      10.86336000       6.43254000       0.00000000       0.00000000       0.00000000        1       0.00000000
Cu       8.49703000       9.19308000       6.10204000       0.00000000       0.00000000       0.00000000        1       0.00000000
Cu      10.96806000       8.84359000       6.46218000       0.00000000       0.00000000       0.00000000        1       0.00000000
Cu      13.41510000       8.56569000       7.00213000       0.00000000       0.00000000       0.00000000        1       0.00000000
Cu       9.27593000      13.39606000       6.97452000       0.00000000       0.00000000       0.00000000        1       0.00000000
Cu       7.67486000      11.36165000       7.08516000       0.00000000       0.00000000       0.00000000        1       0.00000000
Cu      13.39378000      12.90854000       7.73131000       0.00000000       0.00000000       0.00000000        1       0.00000000
Cu      11.36378000      14.54446000       8.06008000       0.00000000       0.00000000       0.00000000        1       0.00000000
Cu      11.08146000      12.03010000       8.06620000       0.00000000       0.00000000       0.00000000        0       0.00000000
Cu      14.32455000      10.49065000       8.34260000       0.00000000       0.00000000       0.00000000        1       0.00000000
Cu       9.50419000      10.04584000       8.16034000       0.00000000       0.00000000       0.00000000        0       0.00000000
Cu       9.18870000       7.53222000       7.82686000       0.00000000       0.00000000       0.00000000        1       0.00000000
Cu       7.00558000      13.55754000       8.08061000       0.00000000       0.00000000       0.00000000        1       0.00000000
Cu      11.73121000       7.20294000       8.27623000       0.00000000       0.00000000       0.00000000        1       0.00000000
Cu      11.99940000       9.72056000       8.63154000       0.00000000       0.00000000       0.00000000        0       0.00000000
Cu       7.17182000       9.11346000       8.26841000       0.00000000       0.00000000       0.00000000        1       0.00000000
Cu       9.08197000      14.78920000       9.06142000       0.00000000       0.00000000       0.00000000        1       0.00000000
Cu       8.71228000      12.26058000       9.18029000       0.00000000       0.00000000       0.00000000        0       0.00000000
Cu      14.36266000      12.99965000      11.54047000       0.00000000       0.00000000       0.00000000        1       0.00000000
Cu      13.83698000       8.22562000       9.46531000       0.00000000       0.00000000       0.00000000        1       0.00000000
Cu       6.37194000      11.66010000      10.00536000       0.00000000       0.00000000       0.00000000        1       0.00000000
Cu      13.07351000      14.36776000       9.84924000       0.00000000       0.00000000       0.00000000        1       0.00000000
Cu      12.94505000      11.81103000       9.87467000       0.00000000       0.00000000       0.00000000        1       0.00000000
Cu      10.82759000      13.32377000      10.18915000       0.00000000       0.00000000       0.00000000        0       0.00000000
Cu      10.55218000      10.93680000      10.33292000       0.00000000       0.00000000       0.00000000        0       0.00000000
Cu      10.96897000      15.78133000      10.63650000       0.00000000       0.00000000       0.00000000        1       0.00000000
Cu      10.25262000       8.39106000       9.94785000       0.00000000       0.00000000       0.00000000        0       0.00000000
Cu       9.96231000       5.99335000       9.64341000       0.00000000       0.00000000       0.00000000        1       0.00000000
Cu       8.21200000       9.93594000      10.38114000       0.00000000       0.00000000       0.00000000        0       0.00000000
Cu      14.54317000      10.35327000      11.26343000       0.00000000       0.00000000       0.00000000        1       0.00000000
Cu       7.93939000       7.42953000      10.08158000       0.00000000       0.00000000       0.00000000        1       0.00000000
Cu       7.12396000      14.11071000      10.47602000       0.00000000       0.00000000       0.00000000        1       0.00000000
Cu       8.35398000      16.40109000      10.77161000       0.00000000       0.00000000       0.00000000        1       0.00000000
Cu       6.01471000       9.00496000      10.50542000       0.00000000       0.00000000       0.00000000        1       0.00000000
Cu      12.31794000       9.28707000      11.13455000       0.00000000       0.00000000       0.00000000        0       0.00000000
Cu      12.04709000       6.82840000      10.78198000       0.00000000       0.00000000       0.00000000        1       0.00000000
Cu       6.06628000      13.02315000      12.44696000       0.00000000       0.00000000       0.00000000        1       0.00000000
H       11.09003989      12.65921713      18.33785036       0.00000000       0.00000000       0.00000000        2       1.00000000
H       10.30144530      10.86212968      18.17447287       0.00000000       0.00000000       0.00000000        2       2.00000000
H        9.74161178      13.92505334      18.13073385       0.00000000       0.00000000       0.00000000        2       3.00000000
H        8.09623734      13.04825093      17.90135436       0.00000000       0.00000000       0.00000000        2       4.00000000
H        8.38619197      11.13230425      17.87981931       0.00000000       0.00000000       0.00000000        2       5.00000000
H       11.61194140      11.33446653      17.80746309       0.00000000       0.00000000       0.00000000        2       6.00000000
H       11.17646357      14.02215676      17.74644782       0.00000000       0.00000000       0.00000000        2       7.00000000
H       13.44719450      13.11807575      17.37880044       0.00000000       0.00000000       0.00000000        2       8.00000000
H       13.09479588      11.61018772      17.22641146       0.00000000       0.00000000       0.00000000        2       9.00000000
H       12.56920101      14.29721654      17.14913260       0.00000000       0.00000000       0.00000000        2      10.00000000
H        9.29006672      10.06714112      17.41712243       0.00000000       0.00000000       0.00000000        2      11.00000000
H       12.41117686      10.25901128      17.13581267       0.00000000       0.00000000       0.00000000        2      12.00000000
H       11.56613787       8.94906250      17.03581640       0.00000000       0.00000000       0.00000000        2      13.00000000
H        9.95904459       8.63969089      16.28583134       0.00000000       0.00000000       0.00000000        2      14.00000000
H        8.53975224      14.35809908      17.36750900       0.00000000       0.00000000       0.00000000        2      15.00000000
H       11.48103633      15.34941742      16.96629497       0.00000000       0.00000000       0.00000000        2      16.00000000
H       10.24779467      16.16164221      16.85126706       0.00000000       0.00000000       0.00000000        2      17.00000000
H        8.84633072      15.71270062      16.60135884       0.00000000       0.00000000       0.00000000        2      18.00000000
H        7.40703280      11.89813338      17.18193938       0.00000000       0.00000000       0.00000000        2      19.00000000
H        7.51300146      14.97001656      16.43858855       0.00000000       0.00000000       0.00000000        2      20.00000000
H        6.28302451      12.50379369      16.21128035       0.00000000       0.00000000       0.00000000        2      21.00000000
H        6.31082278      14.05667236      16.33995114       0.00000000       0.00000000       0.00000000        2      22.00000000
H        8.62856350       8.83502083      16.08257531       0.00000000       0.00000000       0.00000000        2      23.00000000
H        6.57191782      11.04810084      16.24364315       0.00000000       0.00000000       0.00000000        2      24.00000000
H        7.03944820       9.57054950      16.30844231       0.00000000       0.00000000       0.00000000        2      25.00000000
H       14.34469883      11.65407588      16.58656031       0.00000000       0.00000000       0.00000000        2      26.00000000
H       13.82239038      14.70330667      16.43460129       0.00000000       0.00000000       0.00000000        2      27.00000000
H       15.42613793      12.41561746      15.03434283       0.00000000       0.00000000       0.00000000        2      28.00000000
H       14.98291041      14.35885073      15.02729853       0.00000000       0.00000000       0.00000000        2      29.00000000
H       13.23729682       9.31338021      16.43114837       0.00000000       0.00000000       0.00000000        2      30.00000000
H       14.79007851      11.13361395      15.27026042       0.00000000       0.00000000       0.00000000        2      31.00000000
H       14.21119419       9.66701250      15.12560895       0.00000000       0.00000000       0.00000000        2      32.00000000
H       11.96864493      16.47846910      16.11571100       0.00000000       0.00000000       0.00000000        2      33.00000000
H       13.94726679      15.36867166      15.04728777       0.00000000       0.00000000       0.00000000        2      34.00000000
H       12.78316096      16.43790251      14.82733441       0.00000000       0.00000000       0.00000000        2      35.00000000
H       10.54812687       7.64833584      15.59026515       0.00000000       0.00000000       0.00000000        2      36.00000000
H       13.68066003       8.49501926      14.93763508       0.00000000       0.00000000       0.00000000        2      37.00000000
H       12.20524474       7.17756106      14.58163549       0.00000000       0.00000000       0.00000000        2      38.00000000
H        8.95427293      16.88656596      15.71637985       0.00000000       0.00000000       0.00000000        2      39.00000000
H       11.76696325      17.38191903      14.42090694       0.00000000       0.00000000       0.00000000        2      40.00000000
H        9.87262476      17.67547995      14.15469210       0.00000000       0.00000000       0.00000000        2      41.00000000
H        8.03573611       7.99625309      15.17989460       0.00000000       0.00000000       0.00000000        2      42.00000000
H       10.68427885       7.19751556      14.30934059       0.00000000       0.00000000       0.00000000        2      43.00000000
H        9.39963434       6.79981368      13.73212044       0.00000000       0.00000000       0.00000000        2      44.00000000
H        8.15185277       7.56702741      13.85956065       0.00000000       0.00000000       0.00000000        2      45.00000000
H        6.66062627      15.65114783      15.43821992       0.00000000       0.00000000       0.00000000        2      46.00000000
H        8.56399540      17.04805244      14.27459367       0.00000000       0.00000000       0.00000000        2      47.00000000
H        7.09829675      16.30996962      14.12011908       0.00000000       0.00000000       0.00000000        2      48.00000000
H        5.33118378      12.86310889      15.25068886       0.00000000       0.00000000       0.00000000        2      49.00000000
H        5.78647023      10.31018369      15.27117895       0.00000000       0.00000000       0.00000000        2      50.00000000
H        5.36086792      10.86881458      13.73348588       0.00000000       0.00000000       0.00000000        2      51.00000000
H        5.17791280      12.45656170      13.80077374       0.00000000       0.00000000       0.00000000        2      52.00000000
H        5.89693666      15.61269160      13.76036946       0.00000000       0.00000000       0.00000000        2      53.00000000
H        5.00066226      13.81864150      13.49164745       0.00000000       0.00000000       0.00000000        2      54.00000000
H        5.60872775       9.60512681      13.63522195       0.00000000       0.00000000       0.00000000        2      55.00000000
H        6.70598288       7.96674975      13.65690514       0.00000000       0.00000000       0.00000000        2      56.00000000
H       15.32499383      13.33660733      13.95003405       0.00000000       0.00000000       0.00000000        2      57.00000000
H       14.98545592      10.25335848      14.05666187       0.00000000       0.00000000       0.00000000        2      58.00000000
H       15.53513779      12.63746571      12.66191937       0.00000000       0.00000000       0.00000000        2      59.00000000
H       15.63715134      10.94221386      12.58022185       0.00000000       0.00000000       0.00000000        2      60.00000000
H       13.75424279      16.10473892      13.65318516       0.00000000       0.00000000       0.00000000        2      61.00000000
H       13.39511546      15.08068940      12.28964176       0.00000000       0.00000000       0.00000000        2      62.00000000
H       15.20143607      14.11613301      12.49937662       0.00000000       0.00000000       0.00000000        2      63.00000000
H       13.25691989       7.91297334      13.85391149       0.00000000       0.00000000       0.00000000        2      64.00000000
H       14.63122141       8.29112559      13.38521891       0.00000000       0.00000000       0.00000000        2      65.00000000
H       15.05200648       9.58516137      12.72406241       0.00000000       0.00000000       0.00000000        2      66.00000000
H       10.96412691      17.45958411      13.17962193       0.00000000       0.00000000       0.00000000        2      67.00000000
H       12.98483470      15.43949246      12.14873133       0.00000000       0.00000000       0.00000000        2      68.00000000
H       11.84245318      16.99670678      11.68292111       0.00000000       0.00000000       0.00000000        2      69.00000000
H       10.88690542       6.43777530      13.01113127       0.00000000       0.00000000       0.00000000        2      70.00000000
H       13.17064284       6.90005203      13.06599024       0.00000000       0.00000000       0.00000000        2      71.00000000
H       12.20619439       6.38399782      12.41725337       0.00000000       0.00000000       0.00000000        2      72.00000000
H        7.85926472      16.93762329      12.97372438       0.00000000       0.00000000       0.00000000        2      73.00000000
H       10.43556788      17.23524233      11.54415693       0.00000000       0.00000000       0.00000000        2      74.00000000
H        8.75175413      17.56879438      11.88697162       0.00000000       0.00000000       0.00000000        2      75.00000000
H        8.15329300       6.84926942      12.54555048       0.00000000       0.00000000       0.00000000        2      76.00000000
H        9.62759240       5.49927639      11.22635304       0.00000000       0.00000000       0.00000000        2      77.00000000
H        8.41171051       6.20813652      11.19578664       0.00000000       0.00000000       0.00000000        2      78.00000000
H       10.92206023       5.84237817      11.62790956       0.00000000       0.00000000       0.00000000        2      79.00000000
H        6.28350886      15.34243710      11.28958128       0.00000000       0.00000000       0.00000000        2      80.00000000
H        7.07369647      16.74096006      11.78586493       0.00000000       0.00000000       0.00000000        2      81.00000000
H        5.62983810      14.67319327      12.58812144       0.00000000       0.00000000       0.00000000        2      82.00000000
H        6.15082549       8.92022195      12.67057917       0.00000000       0.00000000       0.00000000        2      83.00000000
H        5.27661862      11.00896338      11.17377605       0.00000000       0.00000000       0.00000000        2      84.00000000
H        5.15704876       9.61539738      11.79209216       0.00000000       0.00000000       0.00000000        2      85.00000000
H        5.13340986      11.64360514      12.53276667       0.00000000       0.00000000       0.00000000        2      86.00000000
H        7.14913021       7.12939122      11.55719917       0.00000000       0.00000000       0.00000000        2      87.00000000
H        6.20094965       7.93653068      11.84564705       0.00000000       0.00000000       0.00000000        2      88.00000000
H       13.70638491      14.52222378      11.82161671       0.00000000       0.00000000       0.00000000        2      89.00000000
H       13.18681378      15.06131124      11.35518144       0.00000000       0.00000000       0.00000000        2      90.00000000
H       13.44907051      13.50380331      10.75830974       0.00000000       0.00000000       0.00000000        2      91.00000000
H       12.41890093      15.57953905      11.48612619       0.00000000       0.00000000       0.00000000        2      92.00000000
H       14.79998630       7.33114430      10.48964481       0.00000000       0.00000000       0.00000000        2      93.00000000
H       15.39198882       8.87284846      11.59321098       0.00000000       0.00000000       0.00000000        2      94.00000000
H       13.52444911       6.31135979      11.36948579       0.00000000       0.00000000       0.00000000        2      95.00000000
H       10.74057743      12.21734997       4.84608269       0.00000000       0.00000000       0.00000000        2      96.00000000
H       12.58988809      12.01740408       5.20940588       0.00000000       0.00000000       0.00000000        2      97.00000000
H       10.10457502      13.84051913       5.57782735       0.00000000       0.00000000       0.00000000        2      98.00000000
H       13.22728906      13.46935777       6.15028033       0.00000000       0.00000000       0.00000000        2      99.00000000
H       11.72252805      14.74959906       6.42734957       0.00000000       0.00000000       0.00000000        2     100.00000000
H       11.51692582      10.97069462       5.09893047       0.00000000       0.00000000       0.00000000        2     101.00000000
H        9.13132599      10.19113480       4.92241009       0.00000000       0.00000000       0.00000000        2     102.00000000
H       10.54562553       9.77724957       5.11835064       0.00000000       0.00000000       0.00000000        2     103.00000000
H        9.37171277      12.64920218       5.45280307       0.00000000       0.00000000       0.00000000        2     104.00000000
H        8.38051613      11.37209658       5.51768214       0.00000000       0.00000000       0.00000000        2     105.00000000
H       12.08208157       9.59490664       5.41518627       0.00000000       0.00000000       0.00000000        2     106.00000000
H       13.53981116       9.66758780       5.75170081       0.00000000       0.00000000       0.00000000        2     107.00000000
H       13.71468499      12.11343019       6.27599470       0.00000000       0.00000000       0.00000000        2     108.00000000
H       14.27446307      10.65873994       6.64162463       0.00000000       0.00000000       0.00000000        2     109.00000000
H        9.80205376       8.50583326       5.30439977       0.00000000       0.00000000       0.00000000        2     110.00000000
H        7.36750104      10.38246537       5.75922093       0.00000000       0.00000000       0.00000000        2     111.00000000
H        8.51639437       7.53943964       6.30186841       0.00000000       0.00000000       0.00000000        2     112.00000000
H        6.98558072       8.69001594       6.64816687       0.00000000       0.00000000       0.00000000        2     113.00000000
H       12.34659811       8.18833287       5.76634609       0.00000000       0.00000000       0.00000000        2     114.00000000
H        9.99538358       7.44845132       6.32565346       0.00000000       0.00000000       0.00000000        2     115.00000000
H       11.53400399       7.25397916       6.59583355       0.00000000       0.00000000       0.00000000        2     116.00000000
H       14.84129423       9.43027458       7.15271863       0.00000000       0.00000000       0.00000000        2     117.00000000
H       12.89270423       6.97820408       7.09120793       0.00000000       0.00000000       0.00000000        2     118.00000000
H       14.47645724       7.72973954       7.99544368       0.00000000       0.00000000       0.00000000        2     119.00000000
H        7.99855742      12.70265831       6.08527594       0.00000000       0.00000000       0.00000000        2     120.00000000
H       10.30286745      14.74653858       6.72855187       0.00000000       0.00000000       0.00000000        2     121.00000000
H        7.74643023      14.00858378       6.64133336       0.00000000       0.00000000       0.00000000        2     122.00000000
H        8.88118524      14.96532456       7.40713502       0.00000000       0.00000000       0.00000000        2     123.00000000
H        6.60550550      12.60496144       6.76895025       0.00000000       0.00000000       0.00000000        2     124.00000000
H        6.57679171      10.06308540       6.98537946       0.00000000       0.00000000       0.00000000        2     125.00000000
H        6.01122579      11.53157149       8.09128394       0.00000000       0.00000000       0.00000000        2     126.00000000
H       12.86945476      14.46762994       7.23592054       0.00000000       0.00000000       0.00000000        2     127.00000000
H       14.76949356      11.89886925       7.43924162       0.00000000       0.00000000       0.00000000        2     128.00000000
H       14.00650243      14.33970471       8.42328265       0.00000000       0.00000000       0.00000000        2     129.00000000
H       14.25016328      12.37802387       9.03610142       0.00000000       0.00000000       0.00000000        2     130.00000000
H       10.05704178      15.57981579       7.95870494       0.00000000       0.00000000       0.00000000        2     131.00000000
H       12.79487753      15.27482012       8.48460818       0.00000000       0.00000000       0.00000000        2     132.00000000
H       11.41148728      16.15090813       8.91136520       0.00000000       0.00000000       0.00000000        2     133.00000000
H       15.05516315       8.97213581       8.54822388       0.00000000       0.00000000       0.00000000        2     134.00000000
H       14.45997973      11.87742617       9.22174579       0.00000000       0.00000000       0.00000000        2     135.00000000
H       15.53086129      10.29265547       9.71449408       0.00000000       0.00000000       0.00000000        2     136.00000000
H       10.46151217       6.47926442       7.39184504       0.00000000       0.00000000       0.00000000        2     137.00000000
H        7.52566576       7.65197296       7.45939655       0.00000000       0.00000000       0.00000000        2     138.00000000
H        9.28081630       5.89045823       8.12227540       0.00000000       0.00000000       0.00000000        2     139.00000000
H        7.98874800       6.60659829       8.59541167       0.00000000       0.00000000       0.00000000        2     140.00000000
H        7.75695916      15.09111314       8.02368588       0.00000000       0.00000000       0.00000000        2     141.00000000
H        5.62647737      12.65066433       8.73370225       0.00000000       0.00000000       0.00000000        2     142.00000000
H        6.19397760      14.50610856       9.16515529       0.00000000       0.00000000       0.00000000        2     143.00000000
H       13.40230666       6.87601598       8.49674739       0.00000000       0.00000000       0.00000000        2     144.00000000
H       11.09631393       5.65105455       8.44557141       0.00000000       0.00000000       0.00000000        2     145.00000000
H       12.30305118       6.00998185       9.32642083       0.00000000       0.00000000       0.00000000        2     146.00000000
H        5.74692179      10.35312699       8.71379429       0.00000000       0.00000000       0.00000000        2     147.00000000
H        6.82866346       7.52952316       8.79353153       0.00000000       0.00000000       0.00000000        2     148.00000000
H        5.71090456       8.59455767       8.90825879       0.00000000       0.00000000       0.00000000        2     149.00000000
H        9.98099331      16.24431097       9.29844173       0.00000000       0.00000000       0.00000000        2     150.00000000
H        7.48140333      15.22278975       9.27904503       0.00000000       0.00000000       0.00000000        2     151.00000000
H        8.47748802      16.32833894       9.12456280       0.00000000       0.00000000       0.00000000        2     152.00000000
H       14.63488348      14.25584236      10.45883279       0.00000000       0.00000000       0.00000000        2     153.00000000
H       14.48704647      12.43261989       9.98142938       0.00000000       0.00000000       0.00000000        2     154.00000000
H       15.55282062      11.76083080      11.31259455       0.00000000       0.00000000       0.00000000        2     155.00000000
H       15.25721551       9.00395873      10.28265021       0.00000000       0.00000000       0.00000000        2     156.00000000
H       13.53864951       6.60930373       9.96066247       0.00000000       0.00000000       0.00000000        2     157.00000000
H        5.74552398      13.24951228       9.94588092       0.00000000       0.00000000       0.00000000        2     158.00000000
H        5.13773753      10.41303800       9.93193288       0.00000000       0.00000000       0.00000000        2     159.00000000
H        5.13729140      12.46314626      11.02306001       0.00000000       0.00000000       0.00000000        2     160.00000000
H       14.04585954      13.03485242       9.47922809       0.00000000       0.00000000       0.00000000        2     161.00000000
H       12.52288329      16.00456389       9.91395021       0.00000000       0.00000000       0.00000000        2     162.00000000
H       14.60599548      11.49018738      10.00808709       0.00000000       0.00000000       0.00000000        2     163.00000000
H        9.88602147      17.11725964      10.35494648       0.00000000       0.00000000       0.00000000        2     164.00000000
H        8.29654103       5.82976669       9.72771595       0.00000000       0.00000000       0.00000000        2     165.00000000
H       11.39840197       5.37773449      10.24812195       0.00000000       0.00000000       0.00000000        2     166.00000000
H        6.26245253       7.38897220      10.12920289       0.00000000       0.00000000       0.00000000        2     167.00000000
H        6.84488992      15.78593267      10.24457751       0.00000000       0.00000000       0.00000000        2     168.00000000
H        5.63483626      14.05882540      11.21797197       0.00000000       0.00000000       0.00000000        2     169.00000000
